#GMS MODFLOW Simulation
#16 December 2010
FREE
HDF5 1.0 -1 "noSeawatAux.h5" "Arrays/ibound1" 1 0 100
-999.0
HDF5 1.0 -1 "noSeawatAux.h5" "Arrays/StartHead1" 1 0 100
