#GMS MODFLOW Simulation
#07 November 2006
FREE
INTERNAL 1 (free) -1
1 1 1 1 1 
1 1 1 1 1 
1 1 1 1 1 
1 1 1 1 1 
1 1 1 1 1 
1 1 1 1 1 
INTERNAL 1 (free) -1
1 1 1 1 1 
1 1 1 1 1 
1 1 1 1 1 
1 1 1 1 1 
1 1 1 1 1 
1 1 1 1 1 
-999.000000
INTERNAL 1 (free) -1
20.0 19.618682861328 19.399730682373 19.239849090576 19.095266342163 
20.0 19.610197067261 19.379981994629 19.205379486084 19.085386276245 
20.0 19.528205871582 19.351211547852 19.174652099609 19.078859329224 
20.0 19.672542572021 19.349527359009 19.212413787842 19.101634979248 
20.0 19.766538619995 19.490850448608 19.237302780151 19.12717628479 
20.0 19.791286468506 19.552890777588 19.32981300354 19.158723831177 
INTERNAL 1 (free) -1
20.0 19.583873748779 19.353601455688 19.177005767822 19.07421875 
20.0 19.386209487915 19.28408241272 19.081426620483 19.038301467896 
20.0 19.600696563721 19.282020568848 18.783166885376 18.981145858765 
20.0 19.759304046631 19.436262130737 19.151901245117 19.068964004517 
20.0 20.029630661011 19.581768035889 19.298147201538 19.131387710571 
20.0 19.866193771362 19.594150543213 19.348558425903 19.159851074219 
