# MF2K NAME file
#
# MODFLOW USG
# Output Files
LIST               702  bcf2ss.out
DATA(BINARY)       730  bcf2ss.hed
#
# Global Input Files
DISU               719  bcf2ss.disu
#
# Flow Process Input Files
BAS6               703  bcf2ss.ba6
BCF6               704  bcf2ss.bc6
OC                 715  bcf2ss.oc
RCH                716  bcf2ss.rch
RIV                708  bcf2ss.riv
WEL                709  bcf2ss.wel
SMS                714  bcf2ss.sms
